Version 4
SHEET 1 996 680
WIRE -80 128 -128 128
WIRE 96 128 0 128
WIRE 208 128 160 128
WIRE 288 128 208 128
WIRE 496 128 464 128
WIRE 624 128 576 128
WIRE 736 128 688 128
WIRE 736 144 736 128
WIRE -128 160 -128 128
WIRE 208 160 208 128
WIRE 288 160 288 128
WIRE 320 160 288 160
WIRE 464 176 464 128
WIRE 464 176 384 176
WIRE 320 192 288 192
WIRE 288 224 288 192
WIRE 464 224 464 176
WIRE 464 224 288 224
FLAG 208 240 0
FLAG 736 224 0
FLAG -128 240 0
SYMBOL res 16 112 R90
WINDOW 0 0 56 VBottom 2
WINDOW 3 32 56 VTop 2
SYMATTR InstName R1
SYMATTR Value 1k
SYMBOL res 592 112 R90
WINDOW 0 0 56 VBottom 2
WINDOW 3 32 56 VTop 2
SYMATTR InstName R2
SYMATTR Value 1k
SYMBOL cap 160 112 R90
WINDOW 0 0 32 VBottom 2
WINDOW 3 32 32 VTop 2
SYMATTR InstName C1
SYMATTR Value 915µ
SYMBOL ind 192 144 R0
SYMATTR InstName L1
SYMATTR Value 1k5
SYMBOL OpAmps\\opamp 352 112 R0
SYMATTR InstName U1
SYMBOL cap 688 112 R90
WINDOW 0 0 32 VBottom 2
WINDOW 3 32 32 VTop 2
SYMATTR InstName C2
SYMATTR Value 2m2
SYMBOL ind 720 128 R0
SYMATTR InstName L2
SYMATTR Value 645
SYMBOL Misc\\signal -128 144 R0
WINDOW 123 24 132 Left 2
WINDOW 39 0 0 Left 0
SYMATTR InstName V1
SYMATTR Value2 AC 1
TEXT 296 64 Left 2 !.lib opamp.sub
TEXT -160 312 Left 2 !.ac dec 100 0.01m 10k
