Version 4
SHEET 1 880 680
WIRE -16 48 -80 48
WIRE 80 48 48 48
WIRE -80 128 -80 48
WIRE -80 128 -272 128
WIRE -32 128 -80 128
WIRE 80 128 80 48
WIRE 80 128 48 128
WIRE 112 128 80 128
WIRE 112 176 112 128
WIRE -80 208 -80 128
WIRE 16 208 -80 208
WIRE -272 256 -272 128
WIRE 112 272 112 256
WIRE 112 272 -64 272
WIRE 16 288 16 208
WIRE 112 288 16 288
WIRE 112 304 112 288
WIRE -272 416 -272 336
WIRE -64 416 -64 272
WIRE -64 416 -272 416
WIRE -32 416 -64 416
WIRE 80 416 48 416
WIRE 112 416 112 384
WIRE 112 416 80 416
WIRE -64 496 -64 416
WIRE -16 496 -64 496
WIRE 80 496 80 416
WIRE 80 496 48 496
FLAG -272 128 vi
FLAG 112 128 Vo1
FLAG 112 416 Vo
FLAG -272 416 0
SYMBOL voltage -272 240 R0
WINDOW 123 24 124 Left 2
WINDOW 39 0 0 Left 0
SYMATTR Value2 AC 1
SYMATTR InstName V1
SYMATTR Value ""
SYMBOL ind 64 112 R90
WINDOW 0 5 56 VBottom 2
WINDOW 3 32 56 VTop 2
SYMATTR InstName L1
SYMATTR Value 1.414
SYMBOL ind 64 400 R90
WINDOW 0 5 56 VBottom 2
WINDOW 3 32 56 VTop 2
SYMATTR InstName L2
SYMATTR Value 1.414
SYMBOL res 96 160 R0
SYMATTR InstName R1
SYMATTR Value 1
SYMBOL res 96 288 R0
SYMATTR InstName R2
SYMATTR Value 1
SYMBOL cap 48 32 R90
WINDOW 0 0 32 VBottom 2
WINDOW 3 32 32 VTop 2
SYMATTR InstName C1
SYMATTR Value 0.707
SYMBOL cap 48 480 R90
WINDOW 0 0 32 VBottom 2
WINDOW 3 32 32 VTop 2
SYMATTR InstName C2
SYMATTR Value 0.707
TEXT -320 456 Left 2 !.ac dec 100 1m 1k
