Version 4
SHEET 1 880 680
WIRE 64 112 0 112
WIRE 176 112 144 112
WIRE 208 112 176 112
WIRE 320 112 288 112
WIRE 320 128 320 112
WIRE 0 144 0 112
WIRE 176 144 176 112
FLAG 0 224 0
FLAG 176 208 0
FLAG 320 208 0
SYMBOL ind 48 128 R270
WINDOW 0 32 56 VTop 2
WINDOW 3 5 56 VBottom 2
SYMATTR InstName L1
SYMATTR Value 1.5
SYMBOL cap 160 144 R0
SYMATTR InstName C1
SYMATTR Value 1.333
SYMBOL ind 192 128 R270
WINDOW 0 32 56 VTop 2
WINDOW 3 5 56 VBottom 2
SYMATTR InstName L2
SYMATTR Value 0.5
SYMBOL res 304 112 R0
SYMATTR InstName R1
SYMATTR Value 1
SYMBOL voltage 0 128 R0
WINDOW 123 24 124 Left 2
WINDOW 39 0 0 Left 0
SYMATTR InstName V1
SYMATTR Value ""
SYMATTR Value2 AC 1
TEXT -34 272 Left 2 !.ac dec 100 0.01 10
