Version 4
SHEET 1 2264 828
WIRE -240 208 -592 208
WIRE 816 208 464 208
WIRE 1872 208 1520 208
WIRE -112 224 -176 224
WIRE 112 224 -112 224
WIRE 944 224 880 224
WIRE 1184 224 944 224
WIRE 2000 224 1936 224
WIRE -240 240 -272 240
WIRE 816 240 784 240
WIRE 1872 240 1840 240
WIRE -704 352 -768 352
WIRE -592 352 -592 208
WIRE -592 352 -624 352
WIRE -544 352 -592 352
WIRE -416 352 -464 352
WIRE -384 352 -416 352
WIRE -272 352 -272 240
WIRE -272 352 -320 352
WIRE -240 352 -272 352
WIRE -112 352 -112 224
WIRE -112 352 -160 352
WIRE -80 352 -112 352
WIRE 32 352 0 352
WIRE 64 352 32 352
WIRE 112 352 112 224
WIRE 224 352 112 352
WIRE 384 352 304 352
WIRE 464 352 464 208
WIRE 464 352 384 352
WIRE 512 352 464 352
WIRE 640 352 592 352
WIRE 672 352 640 352
WIRE 784 352 784 240
WIRE 784 352 736 352
WIRE 816 352 784 352
WIRE 944 352 944 224
WIRE 944 352 896 352
WIRE 976 352 944 352
WIRE 1088 352 1056 352
WIRE 1120 352 1088 352
WIRE 1184 352 1184 224
WIRE 1280 352 1184 352
WIRE 1440 352 1360 352
WIRE 1520 352 1520 208
WIRE 1520 352 1440 352
WIRE 1568 352 1520 352
WIRE 1696 352 1648 352
WIRE 1728 352 1696 352
WIRE 1840 352 1840 240
WIRE 1840 352 1792 352
WIRE 1872 352 1840 352
WIRE 2000 352 2000 224
WIRE 2000 352 1952 352
WIRE 2032 352 2000 352
WIRE 2144 352 2112 352
WIRE 2176 352 2144 352
WIRE -768 368 -768 352
WIRE 384 368 384 352
WIRE 1440 368 1440 352
WIRE -592 384 -592 352
WIRE 464 384 464 352
WIRE 1520 384 1520 352
WIRE 64 416 64 352
WIRE 1120 416 1120 352
WIRE 2176 416 2176 352
WIRE -272 464 -272 352
WIRE -272 464 -320 464
WIRE 784 464 784 352
WIRE 784 464 736 464
WIRE 1840 464 1840 352
WIRE 1840 464 1792 464
WIRE -416 480 -416 352
WIRE -384 480 -416 480
WIRE 640 480 640 352
WIRE 672 480 640 480
WIRE 1696 480 1696 352
WIRE 1728 480 1696 480
WIRE 32 496 32 352
WIRE 32 496 -320 496
WIRE 1088 496 1088 352
WIRE 1088 496 736 496
WIRE 2144 496 2144 352
WIRE 2144 496 1792 496
FLAG -768 448 0
FLAG 64 496 0
FLAG -592 448 0
FLAG 1120 496 0
FLAG 464 448 0
FLAG 384 448 0
FLAG 2176 496 0
FLAG 1520 448 0
FLAG 1440 448 0
SYMBOL voltage -768 352 R0
WINDOW 123 24 124 Left 2
WINDOW 39 0 0 Left 0
SYMATTR Value2 AC 1 1
SYMATTR InstName V1
SYMATTR Value ""
SYMBOL res -608 336 R90
WINDOW 0 0 56 VBottom 2
WINDOW 3 32 56 VTop 2
SYMATTR InstName R1
SYMATTR Value {R11}
SYMBOL res -448 336 R90
WINDOW 0 0 56 VBottom 2
WINDOW 3 32 56 VTop 2
SYMATTR InstName RG1
SYMATTR Value {R}
SYMBOL cap -608 384 R0
SYMATTR InstName C1
SYMATTR Value {C1}
SYMBOL OpAmps\\opamp -208 288 M180
SYMATTR InstName U1
SYMBOL cap -320 336 R90
WINDOW 0 0 32 VBottom 2
WINDOW 3 32 32 VTop 2
SYMATTR InstName CG2
SYMATTR Value {C1}
SYMBOL res -144 336 R90
WINDOW 0 0 56 VBottom 2
WINDOW 3 32 56 VTop 2
SYMATTR InstName RG3
SYMATTR Value {R}
SYMBOL res 16 336 R90
WINDOW 0 0 56 VBottom 2
WINDOW 3 32 56 VTop 2
SYMATTR InstName RG4
SYMATTR Value {R41}
SYMBOL res 48 512 M180
WINDOW 0 36 76 Left 2
WINDOW 3 36 40 Left 2
SYMATTR InstName RG5
SYMATTR Value {R}
SYMBOL OpAmps\\opamp -352 416 M0
SYMATTR InstName U2
SYMBOL res 608 336 R90
WINDOW 0 0 56 VBottom 2
WINDOW 3 32 56 VTop 2
SYMATTR InstName RG6
SYMATTR Value {R}
SYMBOL cap 448 384 R0
SYMATTR InstName C2
SYMATTR Value {C2}
SYMBOL OpAmps\\opamp 848 288 M180
SYMATTR InstName U3
SYMBOL cap 736 336 R90
WINDOW 0 0 32 VBottom 2
WINDOW 3 32 32 VTop 2
SYMATTR InstName RG7
SYMATTR Value {C2}
SYMBOL res 912 336 R90
WINDOW 0 0 56 VBottom 2
WINDOW 3 32 56 VTop 2
SYMATTR InstName RG8
SYMATTR Value {R}
SYMBOL res 1072 336 R90
WINDOW 0 0 56 VBottom 2
WINDOW 3 32 56 VTop 2
SYMATTR InstName RG9
SYMATTR Value {R}
SYMBOL res 1104 512 M180
WINDOW 0 36 76 Left 2
WINDOW 3 36 40 Left 2
SYMATTR InstName RG10
SYMATTR Value {R}
SYMBOL OpAmps\\opamp 704 416 M0
SYMATTR InstName U4
SYMBOL res 320 336 R90
WINDOW 0 0 56 VBottom 2
WINDOW 3 32 56 VTop 2
SYMATTR InstName R2
SYMATTR Value {R12/a2}
SYMBOL res 400 464 R180
WINDOW 0 36 76 Left 2
WINDOW 3 36 40 Left 2
SYMATTR InstName R5
SYMATTR Value {R12/(a-a2)}
SYMBOL res 1664 336 R90
WINDOW 0 0 56 VBottom 2
WINDOW 3 32 56 VTop 2
SYMATTR InstName RG2
SYMATTR Value {R}
SYMBOL cap 1504 384 R0
SYMATTR InstName C3
SYMATTR Value {C3}
SYMBOL OpAmps\\opamp 1904 288 M180
SYMATTR InstName U5
SYMBOL cap 1792 336 R90
WINDOW 0 0 32 VBottom 2
WINDOW 3 32 32 VTop 2
SYMATTR InstName RG11
SYMATTR Value {C3}
SYMBOL res 1968 336 R90
WINDOW 0 0 56 VBottom 2
WINDOW 3 32 56 VTop 2
SYMATTR InstName RG12
SYMATTR Value {R}
SYMBOL res 2128 336 R90
WINDOW 0 0 56 VBottom 2
WINDOW 3 32 56 VTop 2
SYMATTR InstName RG13
SYMATTR Value {R}
SYMBOL res 2160 512 M180
WINDOW 0 36 76 Left 2
WINDOW 3 36 40 Left 2
SYMATTR InstName RG14
SYMATTR Value {R}
SYMBOL OpAmps\\opamp 1760 416 M0
SYMATTR InstName U6
SYMBOL res 1376 336 R90
WINDOW 0 0 56 VBottom 2
WINDOW 3 32 56 VTop 2
SYMATTR InstName R3
SYMATTR Value {R13/a3}
SYMBOL res 1456 464 R180
WINDOW 0 36 76 Left 2
WINDOW 3 36 40 Left 2
SYMATTR InstName R4
SYMATTR Value {R13/(a-a3)}
TEXT -768 584 Left 2 !.lib opamp.sub
TEXT -768 640 Left 2 ;.param wz=10e3 ww=2*pi*3500
TEXT -768 728 Left 2 !.param R=wz
TEXT -768 680 Left 2 !.param wz=1 ww=1
TEXT -336 576 Left 2 !.param K1=4.807 Q1=7.981 wo1=ww
TEXT -336 608 Left 2 !.param C1 = {1/R/wo1/Q1} R41={(K1-1)*R}
TEXT -336 672 Left 2 !.param K2=1.565 Q2=16.05 wo2=0.903*ww
TEXT -336 704 Left 2 !.param C2 = {1/R/wo2/Q2}
TEXT -336 760 Left 2 !.param K3=1.565 Q3=16.05 wo3=1.107*ww
TEXT -336 792 Left 2 !.param C3 = {1/R/wo3/Q3}
TEXT 310 580 Left 2 !.ac dec 100 {ww/2/pi/10} {ww/2/pi*10}
