Version 4
SHEET 1 1604 680
WIRE 96 16 -160 16
WIRE 208 16 160 16
WIRE 864 32 608 32
WIRE 976 32 928 32
WIRE -288 112 -304 112
WIRE -160 112 -160 16
WIRE -160 112 -208 112
WIRE -112 112 -160 112
WIRE 16 112 -32 112
WIRE 96 112 16 112
WIRE 208 128 208 16
WIRE 208 128 160 128
WIRE 272 128 208 128
WIRE 480 128 432 128
WIRE 608 128 608 32
WIRE 608 128 560 128
WIRE 656 128 608 128
WIRE 784 128 736 128
WIRE 864 128 784 128
WIRE 96 144 80 144
WIRE 272 144 272 128
WIRE 320 144 272 144
WIRE 976 144 976 32
WIRE 976 144 928 144
WIRE 1040 144 976 144
WIRE 1248 144 1200 144
WIRE 1360 144 1328 144
WIRE 1472 144 1360 144
WIRE 16 160 16 112
WIRE 416 160 384 160
WIRE 432 160 432 128
WIRE 432 160 416 160
WIRE 864 160 848 160
WIRE 1040 160 1040 144
WIRE 1088 160 1040 160
WIRE 1568 160 1536 160
WIRE -304 176 -304 112
WIRE 320 176 288 176
WIRE 784 176 784 128
WIRE 1184 176 1152 176
WIRE 1200 176 1200 144
WIRE 1200 176 1184 176
WIRE 1472 176 1456 176
WIRE 1088 192 1056 192
WIRE 1360 192 1360 144
WIRE 288 208 288 176
WIRE 416 208 416 160
WIRE 416 208 288 208
WIRE 80 224 80 144
WIRE 112 224 80 224
WIRE 208 224 208 128
WIRE 208 224 192 224
WIRE 1056 224 1056 192
WIRE 1184 224 1184 176
WIRE 1184 224 1056 224
WIRE 848 240 848 160
WIRE 880 240 848 240
WIRE 976 240 976 144
WIRE 976 240 960 240
WIRE 80 256 80 224
WIRE 1456 256 1456 176
WIRE 1488 256 1456 256
WIRE 1568 256 1568 160
WIRE 848 272 848 240
WIRE 1456 288 1456 256
FLAG 16 224 0
FLAG 80 336 0
FLAG -304 256 0
FLAG 784 240 0
FLAG 848 352 0
FLAG 1456 368 0
FLAG 1360 256 0
FLAG 1568 160 vo
FLAG -304 112 vi
FLAG 208 128 va
SYMBOL res -192 96 R90
WINDOW 0 0 56 VBottom 2
WINDOW 3 32 56 VTop 2
SYMATTR InstName R1
SYMATTR Value 1
SYMBOL res -16 96 R90
WINDOW 0 0 56 VBottom 2
WINDOW 3 32 56 VTop 2
SYMATTR InstName R2
SYMATTR Value 1
SYMBOL res 208 208 R90
WINDOW 0 0 56 VBottom 2
WINDOW 3 32 56 VTop 2
SYMATTR InstName R3
SYMATTR Value 1
SYMBOL res 64 352 M180
WINDOW 0 36 76 Left 2
WINDOW 3 36 40 Left 2
SYMATTR InstName R4
SYMATTR Value 100
SYMBOL cap 0 160 R0
SYMATTR InstName C1
SYMATTR Value 0.66
SYMBOL OpAmps\\opamp 128 192 M180
SYMATTR InstName U1
SYMBOL cap 160 0 R90
WINDOW 0 0 32 VBottom 2
WINDOW 3 32 32 VTop 2
SYMATTR InstName C2
SYMATTR Value 1
SYMBOL OpAmps\\opamp 352 96 R0
SYMATTR InstName U2
SYMBOL Misc\\signal -304 160 R0
WINDOW 123 24 132 Left 2
WINDOW 39 0 0 Left 0
SYMATTR Value2 AC 1 1
SYMATTR InstName V1
SYMBOL res 576 112 R90
WINDOW 0 0 56 VBottom 2
WINDOW 3 32 56 VTop 2
SYMATTR InstName R5
SYMATTR Value 1
SYMBOL res 752 112 R90
WINDOW 0 0 56 VBottom 2
WINDOW 3 32 56 VTop 2
SYMATTR InstName R6
SYMATTR Value 1
SYMBOL res 976 224 R90
WINDOW 0 0 56 VBottom 2
WINDOW 3 32 56 VTop 2
SYMATTR InstName R7
SYMATTR Value 1
SYMBOL res 832 368 M180
WINDOW 0 36 76 Left 2
WINDOW 3 36 40 Left 2
SYMATTR InstName R8
SYMATTR Value 100
SYMBOL cap 768 176 R0
SYMATTR InstName C3
SYMATTR Value 0.25
SYMBOL OpAmps\\opamp 896 208 M180
SYMATTR InstName U3
SYMBOL cap 928 16 R90
WINDOW 0 0 32 VBottom 2
WINDOW 3 32 32 VTop 2
SYMATTR InstName C4
SYMATTR Value 2.5
SYMBOL OpAmps\\opamp 1120 112 R0
SYMATTR InstName U4
SYMBOL res 1344 128 R90
WINDOW 0 0 56 VBottom 2
WINDOW 3 32 56 VTop 2
SYMATTR InstName R9
SYMATTR Value 1
SYMBOL cap 1344 192 R0
SYMATTR InstName C5
SYMATTR Value 0.66
SYMBOL OpAmps\\opamp 1504 224 M180
SYMATTR InstName U5
SYMBOL res 1440 272 R0
SYMATTR InstName R10
SYMATTR Value 100
SYMBOL res 1584 240 R90
WINDOW 0 0 56 VBottom 2
WINDOW 3 32 56 VTop 2
SYMATTR InstName R11
SYMATTR Value 1
TEXT 288 -48 Left 2 !.lib opamp.sub
TEXT -336 392 Left 2 !.ac dec 1 100m 10k
