Version 4
SHEET 1 1504 680
WIRE 336 64 160 64
WIRE 480 64 336 64
WIRE 336 80 336 64
WIRE 848 80 672 80
WIRE 992 80 848 80
WIRE 848 96 848 80
WIRE 16 192 -80 192
WIRE 208 192 96 192
WIRE 336 192 336 144
WIRE 336 192 288 192
WIRE 384 192 336 192
WIRE 480 208 480 64
WIRE 480 208 448 208
WIRE 528 208 480 208
WIRE 720 208 608 208
WIRE 848 208 848 160
WIRE 848 208 800 208
WIRE 896 208 848 208
WIRE -80 224 -80 192
WIRE 160 224 160 144
WIRE 992 224 992 80
WIRE 992 224 960 224
WIRE 1120 224 992 224
WIRE 1296 224 1184 224
WIRE 672 240 672 160
WIRE 1296 256 1296 224
FLAG 160 288 0
FLAG -80 304 0
FLAG 384 224 0
FLAG 672 304 0
FLAG 896 240 0
FLAG 1296 320 0
FLAG -80 192 vi
FLAG 1296 224 vo
FLAG 480 64 vo1
FLAG 992 80 vo2
SYMBOL res 112 176 R90
WINDOW 0 0 56 VBottom 2
WINDOW 3 32 56 VTop 2
SYMATTR InstName R11
SYMATTR Value {R}
SYMBOL res 304 176 R90
WINDOW 0 0 56 VBottom 2
WINDOW 3 32 56 VTop 2
SYMATTR InstName R21
SYMATTR Value {R}
SYMBOL res 176 160 R180
WINDOW 0 36 76 Left 2
WINDOW 3 36 40 Left 2
SYMATTR InstName R31
SYMATTR Value {R}
SYMBOL cap 320 80 R0
SYMATTR InstName C11
SYMATTR Value {C11}
SYMBOL cap 144 224 R0
SYMATTR InstName C21
SYMATTR Value {C21}
SYMBOL OpAmps\\opamp 416 144 R0
SYMATTR InstName U1
SYMBOL voltage -80 208 R0
WINDOW 123 24 124 Left 2
WINDOW 39 0 0 Left 0
SYMATTR Value2 AC 1 1
SYMATTR InstName V1
SYMATTR Value ""
SYMBOL res 624 192 R90
WINDOW 0 0 56 VBottom 2
WINDOW 3 32 56 VTop 2
SYMATTR InstName R12
SYMATTR Value {R}
SYMBOL res 816 192 R90
WINDOW 0 0 56 VBottom 2
WINDOW 3 32 56 VTop 2
SYMATTR InstName R22
SYMATTR Value {R}
SYMBOL res 688 176 R180
WINDOW 0 36 76 Left 2
WINDOW 3 36 40 Left 2
SYMATTR InstName R32
SYMATTR Value {R}
SYMBOL cap 832 96 R0
SYMATTR InstName C12
SYMATTR Value {C12}
SYMBOL cap 656 240 R0
SYMATTR InstName C22
SYMATTR Value {C22}
SYMBOL OpAmps\\opamp 928 160 R0
SYMATTR InstName U2
SYMBOL cap 1184 208 R90
WINDOW 0 0 32 VBottom 2
WINDOW 3 32 32 VTop 2
SYMATTR InstName C1
SYMATTR Value {C21*a}
SYMBOL cap 1312 320 R180
WINDOW 0 24 56 Left 2
WINDOW 3 24 8 Left 2
SYMATTR InstName C2
SYMATTR Value {C21*(1-a)}
TEXT -144 416 Left 2 !.lib opamp.sub
TEXT -152 592 Left 2 !.param wz=10e3 ww=2*pi*2500
TEXT -136 464 Left 2 !.ac dec 100 {ww/2/pi/10} {ww/2/pi*10}
TEXT -144 624 Left 2 !.param R=wz
TEXT 496 416 Left 2 !.param K1=sqrt(2) Q1=0.803 wo1=3.38*ww
TEXT 496 448 Left 2 !.param C21 = {3.72/wz} C11={23.4m/wz}
TEXT 512 584 Left 2 !.param K2=0.7094 Q2=1.307 wo2=3.02*ww
TEXT 512 616 Left 2 !.param C22 = {5.8/wz} C12={18.86m/wz}
TEXT 1280 416 Left 2 !.param a=k1*k2/4
TEXT -152 552 Left 2 ;.param wz=1 ww=2.5
