Version 4
SHEET 1 880 680
WIRE 112 96 32 96
WIRE 224 96 192 96
WIRE 256 96 224 96
WIRE 368 96 336 96
WIRE 464 96 368 96
WIRE 464 112 464 96
WIRE 32 128 32 96
WIRE 224 128 224 96
WIRE 368 128 368 96
FLAG 32 208 0
FLAG 224 192 0
FLAG 368 192 0
FLAG 464 192 0
SYMBOL voltage 32 112 R0
WINDOW 123 24 124 Left 2
WINDOW 39 24 152 Left 2
SYMATTR Value2 AC 1 1
SYMATTR SpiceLine Rser=50
SYMATTR InstName V1
SYMATTR Value SINE()
SYMBOL ind 96 112 R270
WINDOW 0 32 56 VTop 2
WINDOW 3 5 56 VBottom 2
SYMATTR InstName L1
SYMATTR Value {L1}
SYMBOL cap 208 128 R0
SYMATTR InstName C1
SYMATTR Value {C1}
SYMBOL ind 240 112 R270
WINDOW 0 32 56 VTop 2
WINDOW 3 5 56 VBottom 2
SYMATTR InstName L2
SYMATTR Value {L2}
SYMBOL cap 352 128 R0
SYMATTR InstName C2
SYMATTR Value {C2}
SYMBOL res 448 96 R0
SYMATTR InstName R1
SYMATTR Value {R1}
TEXT 56 288 Left 2 !.net I(R1) V1
TEXT -232 320 Left 2 !.ac dec 1000 {wo/2/pi/10} {wo/2/pi*10}
TEXT 288 248 Left 2 !.param C1 = 1.05/R/wo C2 = 0.7794/R/wo
TEXT 288 280 Left 2 !.param L1 = 2.124*R/wo L2 = 2.856*R/wo
TEXT 288 312 Left 2 !.param R1 = 2.557*R
TEXT 288 344 Left 2 !.param R=50 wo=2*pi*1000000
